1A30_POCKET
     RDKit          3D

407384  0  0  0  0  0  0  0  0999 V2000
   20.2370   28.3530   11.6300 N   0  0  0  0  0  0  0  0  0  0  0  0
   20.4760   28.1730   10.2110 C   0  0  2  0  0  0  0  0  0  0  0  0
   19.8150   29.2700    9.3670 C   0  0  0  0  0  0  0  0  0  0  0  0
   18.6240   29.5550    9.5300 O   0  0  0  0  0  0  0  0  0  0  0  0
   19.9010   26.8180    9.8070 C   0  0  0  0  0  0  0  0  0  0  0  0
   20.0730   26.3670    8.3640 C   0  0  0  0  0  0  0  0  0  0  0  0
   21.5250   25.9550    8.1220 C   0  0  0  0  0  0  0  0  0  0  0  0
   19.1150   25.2130    8.1100 C   0  0  0  0  0  0  0  0  0  0  0  0
   20.5760   29.8920    8.4730 N   0  0  0  0  0  0  0  0  0  0  0  0
   20.0160   30.9190    7.5960 C   0  0  2  0  0  0  0  0  0  0  0  0
   19.2600   30.1230    6.5370 C   0  0  0  0  0  0  0  0  0  0  0  0
   19.8550   29.5530    5.6220 O   0  0  0  0  0  0  0  0  0  0  0  0
   21.1210   31.7820    6.9780 C   0  0  0  0  0  0  0  0  0  0  0  0
   21.9870   32.5360    7.9880 C   0  0  0  0  0  0  0  0  0  0  0  0
   22.9700   33.4290    7.2500 C   0  0  0  0  0  0  0  0  0  0  0  0
   21.1180   33.3660    8.9190 C   0  0  0  0  0  0  0  0  0  0  0  0
   17.9390   30.1300    6.6570 N   0  0  0  0  0  0  0  0  0  0  0  0
   17.0540   29.3430    5.8120 C   0  0  2  0  0  0  0  0  0  0  0  0
   16.1500   30.1060    4.8440 C   0  0  0  0  0  0  0  0  0  0  0  0
   15.0310   30.4630    5.2070 O   0  0  0  0  0  0  0  0  0  0  0  0
   16.1920   28.5270    6.7780 C   0  0  0  0  0  0  0  0  0  0  0  0
   15.4910   27.3640    6.1310 C   0  0  0  0  0  0  0  0  0  0  0  0
   15.4130   27.2710    4.8840 O   0  0  0  0  0  0  0  0  0  0  0  0
   14.9990   26.5340    6.9150 O   0  0  0  0  0  0  0  0  0  0  0  0
   16.5700   30.2590    3.5930 N   0  0  0  0  0  0  0  0  0  0  0  0
   15.7400   30.9600    2.6120 C   0  0  2  0  0  0  0  0  0  0  0  0
   14.4770   30.1730    2.2470 C   0  0  0  0  0  0  0  0  0  0  0  0
   13.5640   30.7230    1.6260 O   0  0  0  0  0  0  0  0  0  0  0  0
   16.4910   31.2460    1.3120 C   0  0  2  0  0  0  0  0  0  0  0  0
   16.9170   30.0090    0.7320 O   0  0  0  0  0  0  0  0  0  0  0  0
   17.7040   32.1280    1.5690 C   0  0  0  0  0  0  0  0  0  0  0  0
   14.4340   28.8900    2.6050 N   0  0  0  0  0  0  0  0  0  0  0  0
   13.2700   28.0770    2.2920 C   0  0  0  0  0  0  0  0  0  0  0  0
   12.1780   28.1780    3.3440 C   0  0  0  0  0  0  0  0  0  0  0  0
   11.1070   27.5800    3.2020 O   0  0  0  0  0  0  0  0  0  0  0  0
   12.4400   28.9530    4.3930 N   0  0  0  0  0  0  0  0  0  0  0  0
   11.4890   29.1360    5.4840 C   0  0  2  0  0  0  0  0  0  0  0  0
   10.7650   30.4820    5.4880 C   0  0  0  0  0  0  0  0  0  0  0  0
   11.4080   31.5390    5.4390 O   0  0  0  0  0  0  0  0  0  0  0  0
   12.1960   28.9440    6.8180 C   0  0  0  0  0  0  0  0  0  0  0  0
    9.4340   30.4460    5.5620 N   0  0  0  0  0  0  0  0  0  0  0  0
    8.6450   31.6780    5.6280 C   0  0  2  0  0  0  0  0  0  0  0  0
    8.8480   32.3290    6.9860 C   0  0  0  0  0  0  0  0  0  0  0  0
    8.9320   33.5520    7.0790 O   0  0  0  0  0  0  0  0  0  0  0  0
    7.1370   31.4210    5.5210 C   0  0  0  0  0  0  0  0  0  0  0  0
    6.7220   30.8130    4.2150 C   0  0  0  0  0  0  0  0  0  0  0  0
    7.4540   30.9310    3.2090 O   0  0  0  0  0  0  0  0  0  0  0  0
    5.6230   30.2220    4.2020 O   0  0  0  0  0  0  0  0  0  0  0  0
    8.8950   31.5050    8.0350 N   0  0  0  0  0  0  0  0  0  0  0  0
    9.0280   31.9760    9.4120 C   0  0  2  0  0  0  0  0  0  0  0  0
   10.3780   31.6590   10.0560 C   0  0  0  0  0  0  0  0  0  0  0  0
   11.2230   30.9760    9.4770 O   0  0  0  0  0  0  0  0  0  0  0  0
    7.9450   31.3360   10.2990 C   0  0  0  0  0  0  0  0  0  0  0  0
    6.6100   31.1510    9.5870 C   0  0  0  0  0  0  0  0  0  0  0  0
    5.9760   32.1580    9.2140 O   0  0  0  0  0  0  0  0  0  0  0  0
    6.1890   29.9860    9.4250 O   0  0  0  0  0  0  0  0  0  0  0  0
   10.5450   32.1410   11.2780 N   0  0  0  0  0  0  0  0  0  0  0  0
   11.7390   31.9090   12.0750 C   0  0  2  0  0  0  0  0  0  0  0  0
   11.2200   31.0080   13.1970 C   0  0  0  0  0  0  0  0  0  0  0  0
   10.2320   31.3460   13.8640 O   0  0  0  0  0  0  0  0  0  0  0  0
   12.3080   33.2510   12.6260 C   0  0  2  0  0  0  0  0  0  0  0  0
   12.8330   34.0140   11.5340 O   0  0  0  0  0  0  0  0  0  0  0  0
   13.4000   33.0170   13.6520 C   0  0  0  0  0  0  0  0  0  0  0  0
   11.8210   29.8280   13.3300 N   0  0  0  0  0  0  0  0  0  0  0  0
   11.4040   28.8510   14.3300 C   0  0  2  0  0  0  0  0  0  0  0  0
   12.5710   28.5010   15.2540 C   0  0  0  0  0  0  0  0  0  0  0  0
   13.6350   28.0650   14.7990 O   0  0  0  0  0  0  0  0  0  0  0  0
   10.8590   27.5430   13.6480 C   0  0  0  0  0  0  0  0  0  0  0  0
   10.1250   26.6760   14.6590 C   0  0  0  0  0  0  0  0  0  0  0  0
    9.9470   27.8890   12.4710 C   0  0  0  0  0  0  0  0  0  0  0  0
   -0.1080   27.9240   16.5470 N   0  0  0  0  0  0  0  0  0  0  0  0
    0.0260   27.9330   15.0950 C   0  0  2  0  0  0  0  0  0  0  0  0
    0.5260   26.5590   14.6640 C   0  0  0  0  0  0  0  0  0  0  0  0
    1.1270   25.8380   15.4550 O   0  0  0  0  0  0  0  0  0  0  0  0
    1.0530   29.0030   14.6840 C   0  0  0  0  0  0  0  0  0  0  0  0
    1.1720   29.2770   13.1890 C   0  0  0  0  0  0  0  0  0  0  0  0
    2.2900   30.2790   12.9360 C   0  0  0  0  0  0  0  0  0  0  0  0
    2.4640   30.5880   11.4560 C   0  0  0  0  0  0  0  0  0  0  0  0
    1.3890   31.4830   10.9350 N   0  0  0  0  0  0  0  0  0  0  0  0
    0.2500   26.1950   13.4180 N   0  0  0  0  0  0  0  0  0  0  0  0
    0.6890   24.9260   12.8560 C   0  0  2  0  0  0  0  0  0  0  0  0
    1.5480   25.2760   11.6530 C   0  0  0  0  0  0  0  0  0  0  0  0
    1.1140   26.0220   10.7780 O   0  0  0  0  0  0  0  0  0  0  0  0
   -0.5060   24.0950   12.3780 C   0  0  0  0  0  0  0  0  0  0  0  0
   -1.2630   23.3720   13.4670 C   0  0  0  0  0  0  0  0  0  0  0  0
   -0.3220   21.9780   14.1200 S   0  0  0  0  0  0  0  0  0  0  0  0
   -0.7870   20.6400   12.9540 C   0  0  0  0  0  0  0  0  0  0  0  0
    2.7790   24.7820   11.6240 N   0  0  0  0  0  0  0  0  0  0  0  0
    3.6590   25.0500   10.4960 C   0  0  2  0  0  0  0  0  0  0  0  0
    4.0950   23.7280    9.8810 C   0  0  0  0  0  0  0  0  0  0  0  0
    4.2850   22.7430   10.5910 O   0  0  0  0  0  0  0  0  0  0  0  0
    4.8980   25.8840   10.9090 C   0  0  2  0  0  0  0  0  0  0  0  0
    5.6900   25.1670   12.0050 C   0  0  0  0  0  0  0  0  0  0  0  0
    4.4630   27.2840   11.3330 C   0  0  0  0  0  0  0  0  0  0  0  0
    6.9550   25.8930   12.4250 C   0  0  0  0  0  0  0  0  0  0  0  0
    4.2220   23.6950    8.5620 N   0  0  0  0  0  0  0  0  0  0  0  0
    4.6150   22.4610    7.9240 C   0  0  0  0  0  0  0  0  0  0  0  0
    5.7570   22.5750    6.9470 C   0  0  0  0  0  0  0  0  0  0  0  0
    6.1160   23.6710    6.5040 O   0  0  0  0  0  0  0  0  0  0  0  0
    6.3030   21.4170    6.6000 N   0  0  0  0  0  0  0  0  0  0  0  0
    7.4020   21.3230    5.6600 C   0  0  0  0  0  0  0  0  0  0  0  0
    7.6480   19.8500    5.4210 C   0  0  0  0  0  0  0  0  0  0  0  0
    6.7040   19.0570    5.4600 O   0  0  0  0  0  0  0  0  0  0  0  0
    8.9030   19.4700    5.2020 N   0  0  0  0  0  0  0  0  0  0  0  0
    9.2460   18.0700    4.9670 C   0  0  2  0  0  0  0  0  0  0  0  0
    8.8640   17.2460    6.1960 C   0  0  0  0  0  0  0  0  0  0  0  0
    9.2220   17.5930    7.3250 O   0  0  0  0  0  0  0  0  0  0  0  0
   10.7650   17.9040    4.6620 C   0  0  2  0  0  0  0  0  0  0  0  0
   11.0770   18.4320    3.2640 C   0  0  0  0  0  0  0  0  0  0  0  0
   11.2030   16.4370    4.7620 C   0  0  0  0  0  0  0  0  0  0  0  0
   10.4870   17.6110    2.1780 C   0  0  0  0  0  0  0  0  0  0  0  0
    8.0870   16.1920    5.9840 N   0  0  0  0  0  0  0  0  0  0  0  0
    7.6840   15.3490    7.0960 C   0  0  0  0  0  0  0  0  0  0  0  0
    6.3800   15.7090    7.7820 C   0  0  0  0  0  0  0  0  0  0  0  0
    5.9530   15.0050    8.6970 O   0  0  0  0  0  0  0  0  0  0  0  0
    5.7560   16.8070    7.3790 N   0  0  0  0  0  0  0  0  0  0  0  0
    4.4930   17.1730    7.9960 C   0  0  0  0  0  0  0  0  0  0  0  0
    4.4790   18.4880    8.7420 C   0  0  0  0  0  0  0  0  0  0  0  0
    5.2690   19.3900    8.4480 O   0  0  0  0  0  0  0  0  0  0  0  0
    3.5920   18.5810    9.7270 N   0  0  0  0  0  0  0  0  0  0  0  0
    3.4290   19.7940   10.5200 C   0  0  2  0  0  0  0  0  0  0  0  0
    3.8110   19.6190   11.9730 C   0  0  0  0  0  0  0  0  0  0  0  0
    3.9060   18.5010   12.4530 O   0  0  0  0  0  0  0  0  0  0  0  0
    1.9610   20.2370   10.4900 C   0  0  0  0  0  0  0  0  0  0  0  0
    1.5100   20.7970    9.1700 C   0  0  0  0  0  0  0  0  0  0  0  0
    1.3110   19.9700    8.0790 C   0  0  0  0  0  0  0  0  0  0  0  0
    1.2540   22.1570    9.0340 C   0  0  0  0  0  0  0  0  0  0  0  0
    0.8620   20.4840    6.8760 C   0  0  0  0  0  0  0  0  0  0  0  0
    0.8060   22.6850    7.8340 C   0  0  0  0  0  0  0  0  0  0  0  0
    0.6080   21.8480    6.7510 C   0  0  0  0  0  0  0  0  0  0  0  0
    4.0210   20.7360   12.6600 N   0  0  0  0  0  0  0  0  0  0  0  0
    4.3120   20.7570   14.0990 C   0  0  2  0  0  0  0  0  0  0  0  0
    3.5700   21.9750   14.6660 C   0  0  0  0  0  0  0  0  0  0  0  0
    3.3470   22.9650   13.9600 O   0  0  0  0  0  0  0  0  0  0  0  0
    5.8380   20.8530   14.4520 C   0  0  2  0  0  0  0  0  0  0  0  0
    6.4390   22.1680   13.9470 C   0  0  0  0  0  0  0  0  0  0  0  0
    6.6000   19.6420   13.9020 C   0  0  0  0  0  0  0  0  0  0  0  0
    7.8210   22.4650   14.5060 C   0  0  0  0  0  0  0  0  0  0  0  0
    3.3230   25.1320   17.1190 N   0  0  0  0  0  0  0  0  0  0  0  0
    4.2550   26.0710   17.7260 C   0  0  2  0  0  0  0  0  0  0  0  0
    3.5380   27.2420   18.4010 C   0  0  0  0  0  0  0  0  0  0  0  0
    2.3360   27.4400   18.2220 O   0  0  0  0  0  0  0  0  0  0  0  0
    5.2260   26.6290   16.6560 C   0  0  0  0  0  0  0  0  0  0  0  0
    6.0500   25.4920   16.0400 C   0  0  0  0  0  0  0  0  0  0  0  0
    4.4450   27.3720   15.5690 C   0  0  0  0  0  0  0  0  0  0  0  0
    8.5250   31.9530   16.1670 N   0  0  0  0  0  0  0  0  0  0  0  0
    7.7480   30.7720   16.5310 C   0  0  2  0  0  0  0  0  0  0  0  0
    8.6330   29.8620   17.3710 C   0  0  0  0  0  0  0  0  0  0  0  0
    9.7880   29.6310   17.0230 O   0  0  0  0  0  0  0  0  0  0  0  0
    7.2950   30.0290   15.2720 C   0  0  0  0  0  0  0  0  0  0  0  0
    6.6800   30.8830   14.1590 C   0  0  0  0  0  0  0  0  0  0  0  0
    6.3180   29.9940   12.9920 C   0  0  0  0  0  0  0  0  0  0  0  0
    5.4530   31.6510   14.6650 C   0  0  0  0  0  0  0  0  0  0  0  0
   11.1710   22.1750   16.8010 N   0  0  0  0  0  0  0  0  0  0  0  0
   11.9120   22.1730   15.5410 C   0  0  2  0  0  0  0  0  0  0  0  0
   13.2410   21.4530   15.8000 C   0  0  0  0  0  0  0  0  0  0  0  0
   13.8250   21.5920   16.8770 O   0  0  0  0  0  0  0  0  0  0  0  0
   12.1320   23.6120   15.0000 C   0  0  2  0  0  0  0  0  0  0  0  0
   12.9370   23.5640   13.8210 O   0  0  0  0  0  0  0  0  0  0  0  0
   12.8060   24.4870   16.0190 C   0  0  0  0  0  0  0  0  0  0  0  0
   13.7130   20.6460   14.8310 N   0  0  0  0  0  0  0  0  0  0  0  0
   14.9740   19.8970   14.9740 C   0  0  2  0  0  0  0  0  0  0  0  0
   16.1990   20.7950   15.0770 C   0  0  0  0  0  0  0  0  0  0  0  0
   17.1980   20.4180   15.6870 O   0  0  0  0  0  0  0  0  0  0  0  0
   15.0330   19.0700   13.6870 C   0  0  0  0  0  0  0  0  0  0  0  0
   13.6120   19.0400   13.1990 C   0  0  0  0  0  0  0  0  0  0  0  0
   13.1220   20.4140   13.5040 C   0  0  0  0  0  0  0  0  0  0  0  0
   15.9730   27.8580   13.0660 N   0  0  0  0  0  0  0  0  0  0  0  0
   16.0260   28.3810   11.7000 C   0  0  2  0  0  0  0  0  0  0  0  0
   15.6050   29.8480   11.6180 C   0  0  0  0  0  0  0  0  0  0  0  0
   14.6630   30.2700   12.2930 O   0  0  0  0  0  0  0  0  0  0  0  0
   15.1620   27.5350   10.7000 C   0  0  2  0  0  0  0  0  0  0  0  0
   13.6740   27.6640   11.0110 C   0  0  0  0  0  0  0  0  0  0  0  0
   15.5490   26.0610   10.7600 C   0  0  0  0  0  0  0  0  0  0  0  0
   12.7880   26.7750   10.1520 C   0  0  0  0  0  0  0  0  0  0  0  0
   16.3590   30.6350   10.8520 N   0  0  0  0  0  0  0  0  0  0  0  0
   16.0490   32.0500   10.6500 C   0  0  2  0  0  0  0  0  0  0  0  0
   15.3830   32.1160    9.2810 C   0  0  0  0  0  0  0  0  0  0  0  0
   16.0200   31.8560    8.2610 O   0  0  0  0  0  0  0  0  0  0  0  0
   17.3300   32.9510   10.6500 C   0  0  2  0  0  0  0  0  0  0  0  0
   18.1000   32.8140   11.9670 C   0  0  0  0  0  0  0  0  0  0  0  0
   16.9550   34.4130   10.4240 C   0  0  0  0  0  0  0  0  0  0  0  0
   17.3240   33.2090   13.2130 C   0  0  0  0  0  0  0  0  0  0  0  0
   14.0990   32.4380    9.2630 N   0  0  0  0  0  0  0  0  0  0  0  0
   13.3830   32.4950    8.0030 C   0  0  0  0  0  0  0  0  0  0  0  0
   13.3980   33.8450    7.3270 C   0  0  0  0  0  0  0  0  0  0  0  0
   13.9730   34.8050    7.8460 O   0  0  0  0  0  0  0  0  0  0  0  0
   12.7230   33.9250    6.1850 N   0  0  0  0  0  0  0  0  0  0  0  0
   12.6480   35.1430    5.3930 C   0  0  2  0  0  0  0  0  0  0  0  0
   12.1030   36.3700    6.1060 C   0  0  0  0  0  0  0  0  0  0  0  0
   12.4520   37.4880    5.7380 O   0  0  0  0  0  0  0  0  0  0  0  0
   11.8280   34.9060    4.1340 C   0  0  0  0  0  0  0  0  0  0  0  0
   12.4320   33.9200    3.1710 C   0  0  0  0  0  0  0  0  0  0  0  0
   11.6590   33.9000    1.8650 C   0  0  0  0  0  0  0  0  0  0  0  0
   10.2650   33.4940    2.0480 N   0  0  0  0  0  0  0  0  0  0  0  0
    9.2270   34.3290    2.0950 C   0  0  0  0  0  0  0  0  0  0  0  0
    9.3960   35.6360    1.9250 N   0  0  0  0  0  0  0  0  0  0  0  0
    8.0050   33.8490    2.2670 N   0  0  0  0  0  0  0  0  0  0  0  0
   11.2720   36.1820    7.1300 N   0  0  0  0  0  0  0  0  0  0  0  0
   10.7020   37.3260    7.8420 C   0  0  2  0  0  0  0  0  0  0  0  0
   11.7590   38.1480    8.5800 C   0  0  0  0  0  0  0  0  0  0  0  0
   11.5400   39.3270    8.8580 O   0  0  0  0  0  0  0  0  0  0  0  0
    9.5970   36.8870    8.8090 C   0  0  0  0  0  0  0  0  0  0  0  0
   10.1280   36.1300   10.0110 C   0  0  0  0  0  0  0  0  0  0  0  0
   10.8640   35.1570    9.8730 O   0  0  0  0  0  0  0  0  0  0  0  0
    9.7360   36.5640   11.2000 N   0  0  0  0  0  0  0  0  0  0  0  0
    8.7910   34.3250   -1.4670 N   0  0  0  0  0  0  0  0  0  0  0  0
    9.4950   33.0550   -1.6360 C   0  0  2  0  0  0  0  0  0  0  0  0
   10.4090   33.0220   -2.8440 C   0  0  0  0  0  0  0  0  0  0  0  0
    9.9740   33.3290   -3.9530 O   0  0  0  0  0  0  0  0  0  0  0  0
    8.5080   31.8910   -1.7010 C   0  0  0  0  0  0  0  0  0  0  0  0
    7.8030   31.6360   -0.3960 C   0  0  0  0  0  0  0  0  0  0  0  0
    6.8230   30.5090   -0.5640 C   0  0  0  0  0  0  0  0  0  0  0  0
    6.0930   30.2410    0.6670 N   0  0  0  0  0  0  0  0  0  0  0  0
    4.7950   29.9650    0.7150 C   0  0  0  0  0  0  0  0  0  0  0  0
    4.0910   29.9000   -0.4080 N   0  0  0  0  0  0  0  0  0  0  0  0
    4.2030   29.7360    1.8770 N   0  0  0  0  0  0  0  0  0  0  0  0
   11.6810   32.6520   -2.6500 N   0  0  0  0  0  0  0  0  0  0  0  0
   12.6520   32.5870   -3.7460 C   0  0  2  0  0  0  0  0  0  0  0  0
   12.4090   31.4000   -4.6860 C   0  0  0  0  0  0  0  0  0  0  0  0
   13.2160   30.4670   -4.7350 O   0  0  0  0  0  0  0  0  0  0  0  0
   13.9890   32.4680   -3.0230 C   0  0  0  0  0  0  0  0  0  0  0  0
   13.6240   31.6730   -1.7850 C   0  0  0  0  0  0  0  0  0  0  0  0
   12.3450   32.3540   -1.3510 C   0  0  0  0  0  0  0  0  0  0  0  0
   11.2970   31.4430   -5.4140 N   0  0  0  0  0  0  0  0  0  0  0  0
   10.9170   30.3970   -6.3660 C   0  0  2  0  0  0  0  0  0  0  0  0
   11.4610   30.7200   -7.7410 C   0  0  0  0  0  0  0  0  0  0  0  0
   11.3290   31.8490   -8.2050 O   0  0  0  0  0  0  0  0  0  0  0  0
    9.3970   30.3180   -6.4830 C   0  0  0  0  0  0  0  0  0  0  0  0
    8.6210   29.9090   -5.2440 C   0  0  0  0  0  0  0  0  0  0  0  0
    7.1560   30.2690   -5.4250 C   0  0  0  0  0  0  0  0  0  0  0  0
    8.7870   28.4250   -5.0320 C   0  0  0  0  0  0  0  0  0  0  0  0
   11.9430   26.0600   -5.0200 N   0  0  0  0  0  0  0  0  0  0  0  0
   12.3700   27.0260   -4.0250 C   0  0  2  0  0  0  0  0  0  0  0  0
   13.8840   26.9530   -3.7580 C   0  0  0  0  0  0  0  0  0  0  0  0
   14.3970   25.8770   -3.4390 O   0  0  0  0  0  0  0  0  0  0  0  0
   11.6010   26.7290   -2.7340 C   0  0  0  0  0  0  0  0  0  0  0  0
   11.6760   27.6170   -1.4960 C   0  0  0  0  0  0  0  0  0  0  0  0
   11.0260   28.9520   -1.7840 C   0  0  0  0  0  0  0  0  0  0  0  0
   10.9550   26.9230   -0.3530 C   0  0  0  0  0  0  0  0  0  0  0  0
   14.6020   28.0700   -3.9180 N   0  0  0  0  0  0  0  0  0  0  0  0
   16.0420   28.0970   -3.6370 C   0  0  2  0  0  0  0  0  0  0  0  0
   16.1370   28.0690   -2.1160 C   0  0  0  0  0  0  0  0  0  0  0  0
   15.8950   29.0770   -1.4480 O   0  0  0  0  0  0  0  0  0  0  0  0
   16.6940   29.3600   -4.2090 C   0  0  0  0  0  0  0  0  0  0  0  0
   16.5400   29.5390   -5.7220 C   0  0  0  0  0  0  0  0  0  0  0  0
   17.3440   30.7320   -6.1930 C   0  0  0  0  0  0  0  0  0  0  0  0
   16.9970   28.2930   -6.4540 C   0  0  0  0  0  0  0  0  0  0  0  0
   16.5200   26.9140   -1.5800 N   0  0  0  0  0  0  0  0  0  0  0  0
   16.5510   26.6900   -0.1390 C   0  0  2  0  0  0  0  0  0  0  0  0
   17.9390   26.5120    0.4810 C   0  0  0  0  0  0  0  0  0  0  0  0
   18.5230   25.4440    0.3760 O   0  0  0  0  0  0  0  0  0  0  0  0
   15.6850   25.4400    0.1120 C   0  0  0  0  0  0  0  0  0  0  0  0
   15.3250   25.2240    1.5610 C   0  0  0  0  0  0  0  0  0  0  0  0
   15.8060   25.9310    2.4670 O   0  0  0  0  0  0  0  0  0  0  0  0
   14.5350   24.2960    1.7890 O   0  0  0  0  0  0  0  0  0  0  0  0
   18.4340   27.5200    1.1930 N   0  0  0  0  0  0  0  0  0  0  0  0
   19.7460   27.3950    1.8220 C   0  0  2  0  0  0  0  0  0  0  0  0
   19.6480   26.5490    3.0860 C   0  0  0  0  0  0  0  0  0  0  0  0
   20.6560   26.1250    3.6490 O   0  0  0  0  0  0  0  0  0  0  0  0
   20.3650   28.7660    2.1720 C   0  0  2  0  0  0  0  0  0  0  0  0
   19.5710   29.4180    3.1680 O   0  0  0  0  0  0  0  0  0  0  0  0
   20.4470   29.6530    0.9340 C   0  0  0  0  0  0  0  0  0  0  0  0
   18.4230   26.3140    3.5380 N   0  0  0  0  0  0  0  0  0  0  0  0
   18.2230   25.5160    4.7280 C   0  0  0  0  0  0  0  0  0  0  0  0
   18.2120   24.0350    4.3990 C   0  0  0  0  0  0  0  0  0  0  0  0
   18.0710   23.1980    5.2870 O   0  0  0  0  0  0  0  0  0  0  0  0
   18.3750   23.7090    3.1270 N   0  0  0  0  0  0  0  0  0  0  0  0
   18.3640   22.3220    2.6750 C   0  0  2  0  0  0  0  0  0  0  0  0
   19.7200   21.7790    2.2250 C   0  0  0  0  0  0  0  0  0  0  0  0
   20.3770   22.3760    1.3760 O   0  0  0  0  0  0  0  0  0  0  0  0
   17.3590   22.1720    1.5320 C   0  0  0  0  0  0  0  0  0  0  0  0
   20.1430   20.6550    2.8020 N   0  0  0  0  0  0  0  0  0  0  0  0
   21.3960   20.0140    2.3960 C   0  0  2  0  0  0  0  0  0  0  0  0
   21.2590   19.5000    0.9690 C   0  0  0  0  0  0  0  0  0  0  0  0
   22.1530   19.6870    0.1420 O   0  0  0  0  0  0  0  0  0  0  0  0
   21.7040   18.7860    3.2610 C   0  0  0  0  0  0  0  0  0  0  0  0
   21.9640   19.1210    4.7160 C   0  0  0  0  0  0  0  0  0  0  0  0
   22.2120   20.3000    5.0490 O   0  0  0  0  0  0  0  0  0  0  0  0
   21.9300   18.1730    5.5320 O   0  0  0  0  0  0  0  0  0  0  0  0
   20.1230   18.8610    0.6890 N   0  0  0  0  0  0  0  0  0  0  0  0
   19.8570   18.2490   -0.6170 C   0  0  2  0  0  0  0  0  0  0  0  0
   18.7060   18.8370   -1.4360 C   0  0  0  0  0  0  0  0  0  0  0  0
   17.8940   19.6120   -0.9260 O   0  0  0  0  0  0  0  0  0  0  0  0
   19.5770   16.7560   -0.4130 C   0  0  0  0  0  0  0  0  0  0  0  0
   20.4260   16.1420    0.6890 C   0  0  0  0  0  0  0  0  0  0  0  0
   21.6640   16.1610    0.5580 O   0  0  0  0  0  0  0  0  0  0  0  0
   19.8520   15.6610    1.6920 O   0  0  0  0  0  0  0  0  0  0  0  0
   15.3200   18.1490   -3.3010 N   0  0  0  0  0  0  0  0  0  0  0  0
   14.2020   17.2140   -3.2730 C   0  0  2  0  0  0  0  0  0  0  0  0
   13.1070   17.6910   -4.2320 C   0  0  0  0  0  0  0  0  0  0  0  0
   12.6680   18.8420   -4.1710 O   0  0  0  0  0  0  0  0  0  0  0  0
   13.6200   17.0830   -1.8360 C   0  0  0  0  0  0  0  0  0  0  0  0
   12.6520   15.9160   -1.7580 C   0  0  0  0  0  0  0  0  0  0  0  0
   14.7390   16.9170   -0.8190 C   0  0  0  0  0  0  0  0  0  0  0  0
   15.4120   11.5350    4.7420 N   0  0  0  0  0  0  0  0  0  0  0  0
   15.7420   12.9320    4.9920 C   0  0  2  0  0  0  0  0  0  0  0  0
   14.8320   13.4910    6.0770 C   0  0  0  0  0  0  0  0  0  0  0  0
   13.6810   13.0680    6.2070 O   0  0  0  0  0  0  0  0  0  0  0  0
   15.6720   13.7950    3.7030 C   0  0  2  0  0  0  0  0  0  0  0  0
   14.2600   13.8030    3.1180 C   0  0  0  0  0  0  0  0  0  0  0  0
   16.6780   13.2830    2.6860 C   0  0  0  0  0  0  0  0  0  0  0  0
   14.1310   14.6320    1.8530 C   0  0  0  0  0  0  0  0  0  0  0  0
   15.3790   14.3810    6.8990 N   0  0  0  0  0  0  0  0  0  0  0  0
   14.6080   14.9770    7.9720 C   0  0  0  0  0  0  0  0  0  0  0  0
   14.2170   16.4010    7.6450 C   0  0  0  0  0  0  0  0  0  0  0  0
   14.9360   17.0930    6.9330 O   0  0  0  0  0  0  0  0  0  0  0  0
   13.0640   16.8270    8.1520 N   0  0  0  0  0  0  0  0  0  0  0  0
   12.5790   18.1740    7.9180 C   0  0  0  0  0  0  0  0  0  0  0  0
   11.9500   18.7060    9.1890 C   0  0  0  0  0  0  0  0  0  0  0  0
   12.1220   18.1280   10.2620 O   0  0  0  0  0  0  0  0  0  0  0  0
   11.1660   19.7680    9.0650 N   0  0  0  0  0  0  0  0  0  0  0  0
   10.5190   20.3810   10.2140 C   0  0  2  0  0  0  0  0  0  0  0  0
    9.5200   19.4400   10.8820 C   0  0  0  0  0  0  0  0  0  0  0  0
    9.4850   19.3380   12.1070 O   0  0  0  0  0  0  0  0  0  0  0  0
    9.8180   21.7190    9.8080 C   0  0  2  0  0  0  0  0  0  0  0  0
    9.5270   22.5710   11.0420 C   0  0  0  0  0  0  0  0  0  0  0  0
    8.5390   21.4600    9.0240 C   0  0  0  0  0  0  0  0  0  0  0  0
   10.7320   23.2880   11.5570 C   0  0  0  0  0  0  0  0  0  0  0  0
    8.7640   18.7020   10.0730 N   0  0  0  0  0  0  0  0  0  0  0  0
    7.7540   17.8060   10.6120 C   0  0  0  0  0  0  0  0  0  0  0  0
    8.1640   16.3850   10.9460 C   0  0  0  0  0  0  0  0  0  0  0  0
    7.4160   15.6690   11.6070 O   0  0  0  0  0  0  0  0  0  0  0  0
    9.3280   15.9610   10.4720 N   0  0  0  0  0  0  0  0  0  0  0  0
    9.7850   14.6130   10.7470 C   0  0  0  0  0  0  0  0  0  0  0  0
   10.6210   14.0810    9.6030 C   0  0  0  0  0  0  0  0  0  0  0  0
   11.2280   14.8550    8.8630 O   0  0  0  0  0  0  0  0  0  0  0  0
   11.0890   11.5680    6.0430 N   0  0  0  0  0  0  0  0  0  0  0  0
   10.4030   10.9820    4.9070 C   0  0  2  0  0  0  0  0  0  0  0  0
   11.4250   10.1590    4.1330 C   0  0  0  0  0  0  0  0  0  0  0  0
   12.6330   10.3670    4.2690 O   0  0  0  0  0  0  0  0  0  0  0  0
    9.7390   12.0310    3.9630 C   0  0  2  0  0  0  0  0  0  0  0  0
   10.7890   12.8450    3.2130 C   0  0  0  0  0  0  0  0  0  0  0  0
    8.8000   12.9480    4.7420 C   0  0  0  0  0  0  0  0  0  0  0  0
   10.2090   13.6410    2.0720 C   0  0  0  0  0  0  0  0  0  0  0  0
    7.8370   12.5550   -1.2870 N   0  0  0  0  0  0  0  0  0  0  0  0
    6.7010   13.3710   -0.8470 C   0  0  2  0  0  0  0  0  0  0  0  0
    7.0340   14.7100   -0.1770 C   0  0  0  0  0  0  0  0  0  0  0  0
    6.8080   14.8840    1.0210 O   0  0  0  0  0  0  0  0  0  0  0  0
    5.9720   12.4290    0.1060 C   0  0  0  0  0  0  0  0  0  0  0  0
    7.1050   11.7060    0.7640 C   0  0  0  0  0  0  0  0  0  0  0  0
    8.0190   11.3890   -0.3980 C   0  0  0  0  0  0  0  0  0  0  0  0
    7.5630   15.6500   -0.9530 N   0  0  0  0  0  0  0  0  0  0  0  0
    7.8930   16.9790   -0.4460 C   0  0  2  0  0  0  0  0  0  0  0  0
    6.7780   17.9710   -0.7900 C   0  0  0  0  0  0  0  0  0  0  0  0
    6.1970   17.9030   -1.8810 O   0  0  0  0  0  0  0  0  0  0  0  0
    9.2250   17.5170   -1.0460 C   0  0  2  0  0  0  0  0  0  0  0  0
    9.4660   18.8370   -0.5460 O   0  0  0  0  0  0  0  0  0  0  0  0
    9.1710   17.5760   -2.5670 C   0  0  0  0  0  0  0  0  0  0  0  0
    6.4650   18.9020    0.1360 N   0  0  0  0  0  0  0  0  0  0  0  0
    5.4210   19.9210   -0.0500 C   0  0  2  0  0  0  0  0  0  0  0  0
    5.6400   20.7540   -1.3100 C   0  0  0  0  0  0  0  0  0  0  0  0
    4.6870   21.1060   -2.0080 O   0  0  0  0  0  0  0  0  0  0  0  0
    5.5640   20.7820    1.2020 C   0  0  0  0  0  0  0  0  0  0  0  0
    5.9920   19.8080    2.2300 C   0  0  0  0  0  0  0  0  0  0  0  0
    7.0200   18.9770    1.5010 C   0  0  0  0  0  0  0  0  0  0  0  0
    6.8980   21.0910   -1.5780 N   0  0  0  0  0  0  0  0  0  0  0  0
    7.2660   21.8850   -2.7520 C   0  0  2  0  0  0  0  0  0  0  0  0
    8.6460   21.4390   -3.2330 C   0  0  0  0  0  0  0  0  0  0  0  0
    9.4110   20.8600   -2.4620 O   0  0  0  0  0  0  0  0  0  0  0  0
    7.3340   23.4190   -2.4400 C   0  0  0  0  0  0  0  0  0  0  0  0
    6.0260   23.9170   -1.8280 C   0  0  0  0  0  0  0  0  0  0  0  0
    8.4920   23.7190   -1.5230 C   0  0  0  0  0  0  0  0  0  0  0  0
    8.9550   21.6930   -4.4980 N   0  0  0  0  0  0  0  0  0  0  0  0
   10.2620   21.3230   -5.0490 C   0  0  2  0  0  0  0  0  0  0  0  0
   11.2960   22.2540   -4.4050 C   0  0  0  0  0  0  0  0  0  0  0  0
   11.0640   23.4640   -4.3320 O   0  0  0  0  0  0  0  0  0  0  0  0
   10.2800   21.5170   -6.5680 C   0  0  0  0  0  0  0  0  0  0  0  0
    9.3080   20.6050   -7.2920 C   0  0  0  0  0  0  0  0  0  0  0  0
    9.0980   19.4610   -6.8920 O   0  0  0  0  0  0  0  0  0  0  0  0
    8.7140   21.1060   -8.3690 N   0  0  0  0  0  0  0  0  0  0  0  0
   12.3990   21.7020   -3.8980 N   0  0  0  0  0  0  0  0  0  0  0  0
   13.4350   22.5200   -3.2650 C   0  0  2  0  0  0  0  0  0  0  0  0
   14.8410   22.2800   -3.8350 C   0  0  0  0  0  0  0  0  0  0  0  0
   15.2460   21.1410   -4.0660 O   0  0  0  0  0  0  0  0  0  0  0  0
   13.4810   22.3440   -1.7000 C   0  0  2  0  0  0  0  0  0  0  0  0
   13.9300   20.9380   -1.3080 C   0  0  0  0  0  0  0  0  0  0  0  0
   12.1260   22.6550   -1.0710 C   0  0  0  0  0  0  0  0  0  0  0  0
   14.0570   20.7410    0.1970 C   0  0  0  0  0  0  0  0  0  0  0  0
   15.5600   23.3660   -4.1000 N   0  0  0  0  0  0  0  0  0  0  0  0
   16.9220   23.2930   -4.6160 C   0  0  2  0  0  0  0  0  0  0  0  0
   17.8120   23.4700   -3.3920 C   0  0  0  0  0  0  0  0  0  0  0  0
   17.8220   24.5430   -2.7750 O   0  0  0  0  0  0  0  0  0  0  0  0
   17.1960   24.4140   -5.6470 C   0  0  2  0  0  0  0  0  0  0  0  0
   16.2230   24.2870   -6.8270 C   0  0  0  0  0  0  0  0  0  0  0  0
   18.6390   24.3650   -6.1300 C   0  0  0  0  0  0  0  0  0  0  0  0
   16.2820   22.9310   -7.5550 C   0  0  0  0  0  0  0  0  0  0  0  0
   18.4730   22.3880   -2.9920 N   0  0  0  0  0  0  0  0  0  0  0  0
   19.3360   22.4200   -1.8260 C   0  0  0  0  0  0  0  0  0  0  0  0
   20.7510   22.8740   -2.1180 C   0  0  0  0  0  0  0  0  0  0  0  0
   21.1230   23.0810   -3.2760 O   0  0  0  0  0  0  0  0  0  0  0  0
    4.1980   28.9510    7.7580 O   0  0  0  0  0  0  0  0  0  0  0  0
    4.5380   33.1450    3.2790 O   0  0  0  0  0  0  0  0  0  0  0  0
    6.8040   15.6650    3.6460 O   0  0  0  0  0  0  0  0  0  0  0  0
    8.2840   33.6140   12.3710 O   0  0  0  0  0  0  0  0  0  0  0  0
    6.3720   35.6890    9.0430 O   0  0  0  0  0  0  0  0  0  0  0  0
    8.8480   28.8660    2.1190 O   0  0  0  0  0  0  0  0  0  0  0  0
   10.6780   30.6550    1.4670 O   0  0  0  0  0  0  0  0  0  0  0  0
    0.5670   27.9670    8.7950 O   0  0  0  0  0  0  0  0  0  0  0  0
    4.4730   33.7940    0.6800 O   0  0  0  0  0  0  0  0  0  0  0  0
    4.6760   27.7890   -3.4760 O   0  0  0  0  0  0  0  0  0  0  0  0
    5.9540   26.0850   -5.7350 O   0  0  0  0  0  0  0  0  0  0  0  0
    7.1830   23.5150   -6.1130 O   0  0  0  0  0  0  0  0  0  0  0  0
   20.5150   21.9130    6.2500 O   0  0  0  0  0  0  0  0  0  0  0  0
    3.2400   26.1360    7.0980 O   0  0  0  0  0  0  0  0  0  0  0  0
    2.4660   27.8660    4.0930 O   0  0  0  0  0  0  0  0  0  0  0  0
   11.0040   21.1550    6.5380 O   0  0  0  0  0  0  0  0  0  0  0  0
  2  1  1  1
  3  2  1  0
  4  3  2  0
  5  2  1  0
  6  5  1  0
  7  6  1  0
  8  6  1  0
  9  3  1  0
 10  9  1  0
 11 10  1  0
 12 11  2  0
 10 13  1  6
 14 13  1  0
 15 14  1  0
 16 14  1  0
 17 11  1  0
 18 17  1  0
 19 18  1  0
 20 19  2  0
 18 21  1  1
 22 21  1  0
 23 22  2  0
 24 22  1  0
 25 19  1  0
 26 25  1  1
 27 26  1  0
 28 27  2  0
 29 26  1  0
 30 29  1  0
 29 31  1  1
 32 27  1  0
 33 32  1  0
 34 33  1  0
 35 34  2  0
 36 34  1  0
 37 36  1  0
 38 37  1  0
 39 38  2  0
 37 40  1  1
 41 38  1  0
 42 41  1  0
 43 42  1  0
 44 43  2  0
 42 45  1  1
 46 45  1  0
 47 46  2  0
 48 46  1  0
 49 43  1  0
 50 49  1  0
 51 50  1  0
 52 51  2  0
 50 53  1  1
 54 53  1  0
 55 54  2  0
 56 54  1  0
 57 51  1  0
 58 57  1  6
 59 58  1  0
 60 59  2  0
 61 58  1  0
 62 61  1  0
 61 63  1  1
 64 59  1  0
 65 64  1  0
 65 66  1  1
 67 66  2  0
 68 65  1  0
 69 68  1  0
 70 68  1  0
 72 71  1  1
 73 72  1  0
 74 73  2  0
 75 72  1  0
 76 75  1  0
 77 76  1  0
 78 77  1  0
 79 78  1  0
 80 73  1  0
 81 80  1  0
 82 81  1  0
 83 82  2  0
 81 84  1  6
 85 84  1  0
 86 85  1  0
 87 86  1  0
 88 82  1  0
 89 88  1  1
 90 89  1  0
 91 90  2  0
 92 89  1  0
 93 92  1  0
 92 94  1  1
 95 93  1  0
 96 90  1  0
 97 96  1  0
 98 97  1  0
 99 98  2  0
100 98  1  0
101100  1  0
102101  1  0
103102  2  0
104102  1  0
105104  1  1
106105  1  0
107106  2  0
108105  1  0
109108  1  0
108110  1  6
111109  1  0
112106  1  0
113112  1  0
114113  1  0
115114  2  0
116114  1  0
117116  1  0
118117  1  0
119118  2  0
120118  1  0
121120  1  0
122121  1  0
123122  2  0
121124  1  1
125124  1  0
126125  2  0
127125  1  0
128126  1  0
129127  2  0
130128  2  0
130129  1  0
131122  1  0
132131  1  0
132133  1  6
134133  2  0
135132  1  0
136135  1  0
135137  1  6
138136  1  0
140139  1  6
141140  1  0
142141  2  0
143140  1  0
144143  1  0
145143  1  0
147146  1  6
148147  1  0
149148  2  0
150147  1  0
151150  1  0
152151  1  0
153151  1  0
155154  1  1
156155  1  0
157156  2  0
158155  1  0
159158  1  0
158160  1  1
161156  1  0
162161  1  0
162163  1  6
164163  2  0
165162  1  0
166165  1  0
167166  1  0
167161  1  0
169168  1  1
170169  1  0
171170  2  0
172169  1  0
173172  1  0
172174  1  1
175173  1  0
176170  1  0
177176  1  6
178177  1  0
179178  2  0
180177  1  0
181180  1  0
180182  1  1
183181  1  0
184178  1  0
185184  1  0
186185  1  0
187186  2  0
188186  1  0
189188  1  0
190189  1  0
191190  2  0
189192  1  6
193192  1  0
194193  1  0
195194  1  0
196195  1  0
197196  1  0
198196  2  0
199190  1  0
200199  1  0
200201  1  1
202201  2  0
203200  1  0
204203  1  0
205204  2  0
206204  1  0
208207  1  6
209208  1  0
210209  2  0
211208  1  0
212211  1  0
213212  1  0
214213  1  0
215214  1  0
216215  1  0
217215  2  0
218209  1  0
219218  1  0
219220  1  6
221220  2  0
222219  1  0
223222  1  0
224223  1  0
224218  1  0
225220  1  0
226225  1  0
226227  1  6
228227  2  0
229226  1  0
230229  1  0
231230  1  0
232230  1  0
234233  1  6
235234  1  0
236235  2  0
237234  1  0
238237  1  0
239238  1  0
240238  1  0
241235  1  0
242241  1  0
243242  1  0
244243  2  0
242245  1  1
246245  1  0
247246  1  0
248246  1  0
249243  1  0
250249  1  0
251250  1  0
252251  2  0
250253  1  6
254253  1  0
255254  2  0
256254  1  0
257251  1  0
258257  1  1
259258  1  0
260259  2  0
261258  1  0
262261  1  0
261263  1  6
264259  1  0
265264  1  0
266265  1  0
267266  2  0
268266  1  0
269268  1  0
270269  1  0
271270  2  0
269272  1  6
273270  1  0
274273  1  0
275274  1  0
276275  2  0
274277  1  1
278277  1  0
279278  2  0
280278  1  0
281275  1  0
282281  1  0
282283  1  1
284283  2  0
285282  1  0
286285  1  0
287286  2  0
288286  1  0
290289  1  1
291290  1  0
292291  2  0
293290  1  0
294293  1  0
295293  1  0
297296  1  6
298297  1  0
299298  2  0
300297  1  0
301300  1  0
300302  1  6
303301  1  0
304298  1  0
305304  1  0
306305  1  0
307306  2  0
308306  1  0
309308  1  0
310309  1  0
311310  2  0
312310  1  0
313312  1  6
314313  1  0
315314  2  0
316313  1  0
317316  1  0
316318  1  1
319317  1  0
320314  1  0
321320  1  0
322321  1  0
323322  2  0
324322  1  0
325324  1  0
326325  1  0
327326  2  0
329328  1  1
330329  1  0
331330  2  0
332329  1  0
333332  1  0
332334  1  1
335333  1  0
337336  1  0
337338  1  1
339338  2  0
340337  1  0
341340  1  0
342341  1  0
342336  1  0
343338  1  0
344343  1  6
345344  1  0
346345  2  0
347344  1  0
348347  1  0
347349  1  6
350345  1  0
351350  1  0
351352  1  6
353352  2  0
354351  1  0
355354  1  0
356355  1  0
356350  1  0
357352  1  0
358357  1  1
359358  1  0
360359  2  0
361358  1  0
362361  1  0
363361  1  0
364359  1  0
365364  1  0
366365  1  0
367366  2  0
365368  1  6
369368  1  0
370369  2  0
371369  1  0
372366  1  0
373372  1  6
374373  1  0
375374  2  0
376373  1  0
377376  1  0
376378  1  6
379377  1  0
380374  1  0
381380  1  1
382381  1  0
383382  2  0
384381  1  0
385384  1  0
384386  1  6
387385  1  0
388382  1  0
389388  1  0
390389  1  0
391390  2  0
M  CHG  3  79   1 198   1 217   1
M  END
$$$$
