1A1E_POCKET
     RDKit          3D

298286  0  0  0  0  0  0  0  0999 V2000
   39.3170    5.0700   30.0740 N   0  0  0  0  0  0  0  0  0  0  0  0
   40.6380    4.7780   29.5550 C   0  0  2  0  0  0  0  0  0  0  0  0
   40.7920    3.2560   29.6890 C   0  0  0  0  0  0  0  0  0  0  0  0
   40.0580    2.5810   30.4270 O   0  0  0  0  0  0  0  0  0  0  0  0
   41.7250    5.5180   30.3650 C   0  0  2  0  0  0  0  0  0  0  0  0
   41.6310    5.3280   31.8600 C   0  0  0  0  0  0  0  0  0  0  0  0
   41.5220    6.9820   30.0930 C   0  0  0  0  0  0  0  0  0  0  0  0
   42.8660    5.8830   32.5910 C   0  0  0  0  0  0  0  0  0  0  0  0
   41.7420    2.6270   29.0080 N   0  0  0  0  0  0  0  0  0  0  0  0
   41.8830    1.1950   29.1160 C   0  0  2  0  0  0  0  0  0  0  0  0
   42.8190    0.8460   30.2580 C   0  0  0  0  0  0  0  0  0  0  0  0
   43.5400    1.7000   30.7770 O   0  0  0  0  0  0  0  0  0  0  0  0
   42.4270    0.6630   27.7720 C   0  0  2  0  0  0  0  0  0  0  0  0
   43.8100    0.9340   27.7840 O   0  0  0  0  0  0  0  0  0  0  0  0
   41.7100    1.2520   26.5500 C   0  0  0  0  0  0  0  0  0  0  0  0
   42.9210   -0.4220   30.6000 N   0  0  0  0  0  0  0  0  0  0  0  0
   43.8460   -0.8700   31.5880 C   0  0  2  0  0  0  0  0  0  0  0  0
   45.2810   -0.5640   31.1580 C   0  0  0  0  0  0  0  0  0  0  0  0
   46.1140   -0.2170   32.0110 O   0  0  0  0  0  0  0  0  0  0  0  0
   43.6500   -2.3850   31.8080 C   0  0  0  0  0  0  0  0  0  0  0  0
   44.7230   -2.8800   32.7760 C   0  0  0  0  0  0  0  0  0  0  0  0
   44.7900   -4.3620   33.0020 C   0  0  0  0  0  0  0  0  0  0  0  0
   43.6290   -4.7910   33.7390 N   0  0  0  0  0  0  0  0  0  0  0  0
   43.7730   -5.6010   34.7820 C   0  0  0  0  0  0  0  0  0  0  0  0
   44.9860   -6.0560   35.1630 N   0  0  0  0  0  0  0  0  0  0  0  0
   42.6610   -5.8600   35.4840 N   0  0  0  0  0  0  0  0  0  0  0  0
   45.6150   -0.7090   29.8710 N   0  0  0  0  0  0  0  0  0  0  0  0
   46.9880   -0.4130   29.4290 C   0  0  2  0  0  0  0  0  0  0  0  0
   47.2690    1.0840   29.6170 C   0  0  0  0  0  0  0  0  0  0  0  0
   48.2650    1.4200   30.2500 O   0  0  0  0  0  0  0  0  0  0  0  0
   47.2750   -0.7910   27.9130 C   0  0  0  0  0  0  0  0  0  0  0  0
   46.5960   -0.0170   26.7440 C   0  0  0  0  0  0  0  0  0  0  0  0
   47.0870   -0.2940   25.3070 C   0  0  0  0  0  0  0  0  0  0  0  0
   46.6540    0.7900   24.4320 N   0  0  0  0  0  0  0  0  0  0  0  0
   47.1830    1.0850   23.2260 C   0  0  0  0  0  0  0  0  0  0  0  0
   48.2000    0.3730   22.6980 N   0  0  0  0  0  0  0  0  0  0  0  0
   46.7270    2.1470   22.5520 N   0  0  0  0  0  0  0  0  0  0  0  0
   45.9010    3.3060   31.7140 N   0  0  0  0  0  0  0  0  0  0  0  0
   46.1330    3.5980   33.1330 C   0  0  2  0  0  0  0  0  0  0  0  0
   47.4240    3.0590   33.6780 C   0  0  0  0  0  0  0  0  0  0  0  0
   47.9750    3.6630   34.5880 O   0  0  0  0  0  0  0  0  0  0  0  0
   45.0390    3.0420   34.0070 C   0  0  0  0  0  0  0  0  0  0  0  0
   44.9260    1.6320   34.0600 O   0  0  0  0  0  0  0  0  0  0  0  0
   47.9260    1.9300   33.1780 N   0  0  0  0  0  0  0  0  0  0  0  0
   49.1640    1.4180   33.6900 C   0  0  2  0  0  0  0  0  0  0  0  0
   50.2450    2.2710   33.0970 C   0  0  0  0  0  0  0  0  0  0  0  0
   51.2460    2.4950   33.7610 O   0  0  0  0  0  0  0  0  0  0  0  0
   49.3600   -0.0450   33.3100 C   0  0  0  0  0  0  0  0  0  0  0  0
   48.3430   -0.9340   34.0390 C   0  0  0  0  0  0  0  0  0  0  0  0
   48.5970   -2.4380   34.2660 C   0  0  0  0  0  0  0  0  0  0  0  0
   49.5640   -2.8190   34.9150 O   0  0  0  0  0  0  0  0  0  0  0  0
   47.7230   -3.2580   33.9670 O   0  0  0  0  0  0  0  0  0  0  0  0
   38.6080    4.7160   36.7820 N   0  0  0  0  0  0  0  0  0  0  0  0
   38.2470    4.6390   35.4050 C   0  0  2  0  0  0  0  0  0  0  0  0
   37.1600    3.6080   35.3140 C   0  0  0  0  0  0  0  0  0  0  0  0
   36.8240    2.9460   36.3000 O   0  0  0  0  0  0  0  0  0  0  0  0
   39.4510    4.2330   34.6110 C   0  0  0  0  0  0  0  0  0  0  0  0
   40.1190    3.0180   35.1530 C   0  0  0  0  0  0  0  0  0  0  0  0
   41.0640    2.5140   34.1190 C   0  0  0  0  0  0  0  0  0  0  0  0
   41.6190    1.2400   34.5560 N   0  0  0  0  0  0  0  0  0  0  0  0
   41.0950    0.0470   34.1990 C   0  0  0  0  0  0  0  0  0  0  0  0
   40.0180   -0.0330   33.3920 N   0  0  0  0  0  0  0  0  0  0  0  0
   41.6840   -1.0580   34.7040 N   0  0  0  0  0  0  0  0  0  0  0  0
   36.5680    3.4650   34.1530 N   0  0  0  0  0  0  0  0  0  0  0  0
   35.5480    2.4580   33.9280 C   0  0  2  0  0  0  0  0  0  0  0  0
   36.1610    1.1110   33.6190 C   0  0  0  0  0  0  0  0  0  0  0  0
   37.2440    1.0090   33.0260 O   0  0  0  0  0  0  0  0  0  0  0  0
   34.6940    2.8760   32.7820 C   0  0  0  0  0  0  0  0  0  0  0  0
   33.9460    4.1590   33.0910 C   0  0  0  0  0  0  0  0  0  0  0  0
   32.9530    4.6020   32.0230 C   0  0  0  0  0  0  0  0  0  0  0  0
   33.0210    4.1190   30.8830 O   0  0  0  0  0  0  0  0  0  0  0  0
   32.1220    5.4600   32.3460 O   0  0  0  0  0  0  0  0  0  0  0  0
   35.5180    0.0270   34.0340 N   0  0  0  0  0  0  0  0  0  0  0  0
   36.0630   -1.2820   33.7440 C   0  0  2  0  0  0  0  0  0  0  0  0
   35.7810   -1.5760   32.2760 C   0  0  0  0  0  0  0  0  0  0  0  0
   34.6430   -1.4080   31.8330 O   0  0  0  0  0  0  0  0  0  0  0  0
   35.3760   -2.3140   34.6100 C   0  0  0  0  0  0  0  0  0  0  0  0
   35.9560   -3.6140   34.4880 O   0  0  0  0  0  0  0  0  0  0  0  0
   36.7940   -1.9700   31.5100 N   0  0  0  0  0  0  0  0  0  0  0  0
   36.5910   -2.3960   30.1250 C   0  0  2  0  0  0  0  0  0  0  0  0
   35.6940   -3.6670   30.0880 C   0  0  0  0  0  0  0  0  0  0  0  0
   34.8190   -3.8770   29.2390 O   0  0  0  0  0  0  0  0  0  0  0  0
   37.9070   -2.7780   29.4510 C   0  0  0  0  0  0  0  0  0  0  0  0
   39.1770   -1.9180   29.4960 C   0  0  0  0  0  0  0  0  0  0  0  0
   40.4510   -2.6850   29.0950 C   0  0  0  0  0  0  0  0  0  0  0  0
   40.4340   -3.9050   29.0840 O   0  0  0  0  0  0  0  0  0  0  0  0
   41.5030   -2.0960   28.8500 O   0  0  0  0  0  0  0  0  0  0  0  0
   36.0560   -4.5470   31.0300 N   0  0  0  0  0  0  0  0  0  0  0  0
   35.4800   -5.8500   31.3390 C   0  0  2  0  0  0  0  0  0  0  0  0
   34.0820   -5.9870   31.9650 C   0  0  0  0  0  0  0  0  0  0  0  0
   33.2620   -6.7870   31.5100 O   0  0  0  0  0  0  0  0  0  0  0  0
   36.5660   -6.5250   32.2080 C   0  0  2  0  0  0  0  0  0  0  0  0
   37.6890   -6.5860   31.3420 O   0  0  0  0  0  0  0  0  0  0  0  0
   36.2200   -7.9010   32.7790 C   0  0  0  0  0  0  0  0  0  0  0  0
   33.7150   -5.2640   33.0080 N   0  0  0  0  0  0  0  0  0  0  0  0
   32.4310   -5.5130   33.6150 C   0  0  2  0  0  0  0  0  0  0  0  0
   31.6630   -4.2640   33.3220 C   0  0  0  0  0  0  0  0  0  0  0  0
   31.9960   -3.1630   33.7670 O   0  0  0  0  0  0  0  0  0  0  0  0
   32.6120   -5.7230   35.1060 C   0  0  2  0  0  0  0  0  0  0  0  0
   33.5250   -6.8270   35.2720 O   0  0  0  0  0  0  0  0  0  0  0  0
   31.2600   -5.8360   35.7950 C   0  0  0  0  0  0  0  0  0  0  0  0
   30.9500   -1.3750   35.9330 N   0  0  0  0  0  0  0  0  0  0  0  0
   31.8410   -1.3900   37.0710 C   0  0  2  0  0  0  0  0  0  0  0  0
   32.9070   -0.3720   36.8140 C   0  0  0  0  0  0  0  0  0  0  0  0
   33.1750    0.0220   35.6710 O   0  0  0  0  0  0  0  0  0  0  0  0
   32.5140   -2.7740   37.2690 C   0  0  0  0  0  0  0  0  0  0  0  0
   33.4860    0.0450   37.9190 N   0  0  0  0  0  0  0  0  0  0  0  0
   34.5860    0.9620   37.8710 C   0  0  2  0  0  0  0  0  0  0  0  0
   35.7990    0.2200   38.3220 C   0  0  0  0  0  0  0  0  0  0  0  0
   35.7420   -0.9170   38.7730 O   0  0  0  0  0  0  0  0  0  0  0  0
   34.3410    2.1280   38.7780 C   0  0  0  0  0  0  0  0  0  0  0  0
   33.1840    2.9090   38.2340 C   0  0  0  0  0  0  0  0  0  0  0  0
   33.4220    3.8260   37.2120 C   0  0  0  0  0  0  0  0  0  0  0  0
   31.9090    2.6930   38.7340 C   0  0  0  0  0  0  0  0  0  0  0  0
   32.3700    4.5400   36.6690 C   0  0  0  0  0  0  0  0  0  0  0  0
   30.8530    3.4070   38.1950 C   0  0  0  0  0  0  0  0  0  0  0  0
   31.1020    4.3220   37.1720 C   0  0  0  0  0  0  0  0  0  0  0  0
   30.0670    5.0400   36.6370 O   0  0  0  0  0  0  0  0  0  0  0  0
   36.9150    0.8760   38.1900 N   0  0  0  0  0  0  0  0  0  0  0  0
   38.1600    0.2970   38.5910 C   0  0  2  0  0  0  0  0  0  0  0  0
   38.9540    1.4150   39.2810 C   0  0  0  0  0  0  0  0  0  0  0  0
   38.8770    2.5970   38.9050 O   0  0  0  0  0  0  0  0  0  0  0  0
   38.8110   -0.2480   37.3100 C   0  0  0  0  0  0  0  0  0  0  0  0
   40.4440   -0.9210   37.7040 S   0  0  0  0  0  0  0  0  0  0  0  0
   39.6750    1.0530   40.3340 N   0  0  0  0  0  0  0  0  0  0  0  0
   40.5670    1.9360   41.0500 C   0  0  2  0  0  0  0  0  0  0  0  0
   41.9640    1.3690   40.7900 C   0  0  0  0  0  0  0  0  0  0  0  0
   42.2690    0.3010   41.3430 O   0  0  0  0  0  0  0  0  0  0  0  0
   40.2310    1.8720   42.5130 C   0  0  0  0  0  0  0  0  0  0  0  0
   41.0360    2.5970   43.5410 C   0  0  0  0  0  0  0  0  0  0  0  0
   40.8570    4.1100   43.4330 C   0  0  0  0  0  0  0  0  0  0  0  0
   40.4890    2.1910   44.9000 C   0  0  0  0  0  0  0  0  0  0  0  0
   42.7890    2.0110   39.9220 N   0  0  0  0  0  0  0  0  0  0  0  0
   44.1380    1.5840   39.6300 C   0  0  2  0  0  0  0  0  0  0  0  0
   45.0440    2.4310   40.5150 C   0  0  0  0  0  0  0  0  0  0  0  0
   44.9030    3.6550   40.5200 O   0  0  0  0  0  0  0  0  0  0  0  0
   44.3600    1.8560   38.2240 C   0  0  0  0  0  0  0  0  0  0  0  0
   43.3390    1.2040   37.4750 O   0  0  0  0  0  0  0  0  0  0  0  0
   45.9670    1.8100   41.2490 N   0  0  0  0  0  0  0  0  0  0  0  0
   46.8210    2.4100   42.2790 C   0  0  2  0  0  0  0  0  0  0  0  0
   48.2820    2.0170   42.0320 C   0  0  0  0  0  0  0  0  0  0  0  0
   48.4900    0.8190   41.8160 O   0  0  0  0  0  0  0  0  0  0  0  0
   46.4150    1.8730   43.6670 C   0  0  0  0  0  0  0  0  0  0  0  0
   47.1160    2.6990   44.7090 C   0  0  0  0  0  0  0  0  0  0  0  0
   44.9210    1.9020   43.8630 C   0  0  0  0  0  0  0  0  0  0  0  0
   52.1000    0.9010   43.1880 N   0  0  0  0  0  0  0  0  0  0  0  0
   52.6240    0.3760   44.4170 C   0  0  2  0  0  0  0  0  0  0  0  0
   54.0830    0.0700   44.1700 C   0  0  0  0  0  0  0  0  0  0  0  0
   54.5460    0.1510   43.0280 O   0  0  0  0  0  0  0  0  0  0  0  0
   51.8480   -0.8930   44.7660 C   0  0  0  0  0  0  0  0  0  0  0  0
   52.2340   -1.4830   46.1130 C   0  0  0  0  0  0  0  0  0  0  0  0
   52.4430   -0.7150   47.0600 O   0  0  0  0  0  0  0  0  0  0  0  0
   52.3110   -2.7090   46.2050 O   0  0  0  0  0  0  0  0  0  0  0  0
   54.5300   -1.2570   40.2760 N   0  0  0  0  0  0  0  0  0  0  0  0
   53.4710   -2.0460   39.6880 C   0  0  2  0  0  0  0  0  0  0  0  0
   52.2010   -1.3080   40.0220 C   0  0  0  0  0  0  0  0  0  0  0  0
   52.1380   -0.4980   40.9380 O   0  0  0  0  0  0  0  0  0  0  0  0
   53.4700   -3.4740   40.2830 C   0  0  0  0  0  0  0  0  0  0  0  0
   53.3550   -3.5780   41.7790 C   0  0  0  0  0  0  0  0  0  0  0  0
   52.2560   -3.7950   42.2830 O   0  0  0  0  0  0  0  0  0  0  0  0
   54.4300   -3.4650   42.5550 N   0  0  0  0  0  0  0  0  0  0  0  0
   51.2410   -1.4750   39.1710 N   0  0  0  0  0  0  0  0  0  0  0  0
   49.9490   -0.8810   39.3650 C   0  0  2  0  0  0  0  0  0  0  0  0
   48.9900   -2.0010   39.8090 C   0  0  0  0  0  0  0  0  0  0  0  0
   49.0880   -3.0900   39.2740 O   0  0  0  0  0  0  0  0  0  0  0  0
   49.5680   -0.2400   37.9910 C   0  0  0  0  0  0  0  0  0  0  0  0
   48.1410    0.2370   38.0260 C   0  0  0  0  0  0  0  0  0  0  0  0
   50.5510    0.8740   37.6400 C   0  0  0  0  0  0  0  0  0  0  0  0
   48.0620   -1.8730   40.7380 N   0  0  0  0  0  0  0  0  0  0  0  0
   47.0850   -2.9060   41.0870 C   0  0  2  0  0  0  0  0  0  0  0  0
   45.7430   -2.3470   40.6390 C   0  0  0  0  0  0  0  0  0  0  0  0
   45.5740   -1.1170   40.5770 O   0  0  0  0  0  0  0  0  0  0  0  0
   47.0940   -3.1130   42.5580 C   0  0  0  0  0  0  0  0  0  0  0  0
   48.4850   -3.5550   42.9200 C   0  0  0  0  0  0  0  0  0  0  0  0
   48.4380   -4.0730   44.3050 C   0  0  0  0  0  0  0  0  0  0  0  0
   49.6770   -4.9090   44.5590 C   0  0  0  0  0  0  0  0  0  0  0  0
   50.8810   -4.0930   44.5340 N   0  0  0  0  0  0  0  0  0  0  0  0
   44.7870   -3.1730   40.2340 N   0  0  0  0  0  0  0  0  0  0  0  0
   43.4940   -2.7500   39.7350 C   0  0  2  0  0  0  0  0  0  0  0  0
   42.4660   -3.3810   40.6580 C   0  0  0  0  0  0  0  0  0  0  0  0
   42.5020   -4.5950   40.8590 O   0  0  0  0  0  0  0  0  0  0  0  0
   43.2950   -3.2450   38.3260 C   0  0  0  0  0  0  0  0  0  0  0  0
   44.2980   -2.5810   37.4000 C   0  0  0  0  0  0  0  0  0  0  0  0
   44.2600   -1.3770   36.8110 N   0  0  0  0  0  0  0  0  0  0  0  0
   45.4790   -3.1810   37.0320 C   0  0  0  0  0  0  0  0  0  0  0  0
   45.3660   -1.2540   36.1050 C   0  0  0  0  0  0  0  0  0  0  0  0
   46.0850   -2.3390   36.2520 N   0  0  0  0  0  0  0  0  0  0  0  0
   41.6080   -2.5860   41.3070 N   0  0  0  0  0  0  0  0  0  0  0  0
   40.5460   -3.0360   42.1970 C   0  0  2  0  0  0  0  0  0  0  0  0
   39.2050   -2.7950   41.5130 C   0  0  0  0  0  0  0  0  0  0  0  0
   38.9720   -1.6480   41.1430 O   0  0  0  0  0  0  0  0  0  0  0  0
   40.6790   -2.2520   43.4830 C   0  0  0  0  0  0  0  0  0  0  0  0
   41.9940   -2.5960   44.1850 C   0  0  0  0  0  0  0  0  0  0  0  0
   42.0950   -3.6960   45.0630 C   0  0  0  0  0  0  0  0  0  0  0  0
   43.0950   -1.7660   43.9750 C   0  0  0  0  0  0  0  0  0  0  0  0
   43.2890   -3.9530   45.7320 C   0  0  0  0  0  0  0  0  0  0  0  0
   44.2950   -2.0250   44.6510 C   0  0  0  0  0  0  0  0  0  0  0  0
   44.3910   -3.1070   45.5270 C   0  0  0  0  0  0  0  0  0  0  0  0
   45.5730   -3.2820   46.2370 O   0  0  0  0  0  0  0  0  0  0  0  0
   38.3240   -3.7630   41.2520 N   0  0  0  0  0  0  0  0  0  0  0  0
   37.0740   -3.5100   40.5840 C   0  0  2  0  0  0  0  0  0  0  0  0
   36.1630   -2.8070   41.5940 C   0  0  0  0  0  0  0  0  0  0  0  0
   36.2810   -3.0360   42.8080 O   0  0  0  0  0  0  0  0  0  0  0  0
   36.5300   -4.8540   40.1170 C   0  0  0  0  0  0  0  0  0  0  0  0
   35.3430   -4.6490   39.2190 C   0  0  0  0  0  0  0  0  0  0  0  0
   34.9040   -5.9270   38.5260 C   0  0  0  0  0  0  0  0  0  0  0  0
   35.9120   -6.5210   37.5630 C   0  0  0  0  0  0  0  0  0  0  0  0
   35.4730   -7.7880   36.9990 N   0  0  0  0  0  0  0  0  0  0  0  0
   35.2350   -1.9350   41.1770 N   0  0  0  0  0  0  0  0  0  0  0  0
   34.3600   -1.2310   42.1160 C   0  0  2  0  0  0  0  0  0  0  0  0
   33.0000   -1.5750   41.5280 C   0  0  0  0  0  0  0  0  0  0  0  0
   32.7680   -1.2680   40.3670 O   0  0  0  0  0  0  0  0  0  0  0  0
   34.5960    0.3520   42.1160 C   0  0  2  0  0  0  0  0  0  0  0  0
   36.0080    0.7990   42.5720 C   0  0  0  0  0  0  0  0  0  0  0  0
   33.5730    0.9370   43.0730 C   0  0  0  0  0  0  0  0  0  0  0  0
   36.3330    2.2760   42.2640 C   0  0  0  0  0  0  0  0  0  0  0  0
   32.1140   -2.2490   42.2630 N   0  0  0  0  0  0  0  0  0  0  0  0
   30.7920   -2.6450   41.7810 C   0  0  2  0  0  0  0  0  0  0  0  0
   29.7210   -1.7550   42.3440 C   0  0  0  0  0  0  0  0  0  0  0  0
   29.7540   -1.2560   43.4720 O   0  0  0  0  0  0  0  0  0  0  0  0
   30.4750   -4.0740   42.1600 C   0  0  0  0  0  0  0  0  0  0  0  0
   31.4340   -4.9610   41.4270 C   0  0  0  0  0  0  0  0  0  0  0  0
   30.8800   -6.2960   41.1000 C   0  0  0  0  0  0  0  0  0  0  0  0
   31.9950   -7.1490   40.7150 N   0  0  0  0  0  0  0  0  0  0  0  0
   32.0050   -7.9070   39.5980 C   0  0  0  0  0  0  0  0  0  0  0  0
   30.9590   -7.9080   38.7750 N   0  0  0  0  0  0  0  0  0  0  0  0
   33.0310   -8.7450   39.3320 N   0  0  0  0  0  0  0  0  0  0  0  0
   34.2470   -2.1800   47.1800 N   0  0  0  0  0  0  0  0  0  0  0  0
   35.4100   -2.9400   46.7900 C   0  0  2  0  0  0  0  0  0  0  0  0
   35.3400   -4.1760   47.7280 C   0  0  0  0  0  0  0  0  0  0  0  0
   35.6010   -5.2970   47.2900 O   0  0  0  0  0  0  0  0  0  0  0  0
   36.7340   -2.0950   47.0150 C   0  0  2  0  0  0  0  0  0  0  0  0
   36.8630   -1.0210   45.9350 C   0  0  0  0  0  0  0  0  0  0  0  0
   37.9780   -3.0010   46.9310 C   0  0  0  0  0  0  0  0  0  0  0  0
   38.1040   -0.1110   46.1030 C   0  0  0  0  0  0  0  0  0  0  0  0
   34.9110   -4.1310   49.0060 N   0  0  0  0  0  0  0  0  0  0  0  0
   34.8920   -5.2760   49.9080 C   0  0  2  0  0  0  0  0  0  0  0  0
   33.6010   -5.3120   50.6980 C   0  0  0  0  0  0  0  0  0  0  0  0
   32.7940   -4.3930   50.5750 O   0  0  0  0  0  0  0  0  0  0  0  0
   36.0950   -5.2660   50.9130 C   0  0  2  0  0  0  0  0  0  0  0  0
   35.8200   -4.3120   51.9190 O   0  0  0  0  0  0  0  0  0  0  0  0
   37.4200   -4.9950   50.2280 C   0  0  0  0  0  0  0  0  0  0  0  0
   33.3710   -6.3150   51.5440 N   0  0  0  0  0  0  0  0  0  0  0  0
   32.0990   -6.4430   52.2590 C   0  0  2  0  0  0  0  0  0  0  0  0
   32.0500   -5.6040   53.5220 C   0  0  0  0  0  0  0  0  0  0  0  0
   31.0240   -5.3900   54.1780 O   0  0  0  0  0  0  0  0  0  0  0  0
   31.9180   -7.9360   52.5700 C   0  0  0  0  0  0  0  0  0  0  0  0
   33.1150   -8.4050   53.2010 O   0  0  0  0  0  0  0  0  0  0  0  0
   39.1790    5.6550   51.3020 N   0  0  0  0  0  0  0  0  0  0  0  0
   40.4300    4.9430   51.0610 C   0  0  2  0  0  0  0  0  0  0  0  0
   41.6450    5.7950   51.0300 C   0  0  0  0  0  0  0  0  0  0  0  0
   42.7370    5.2190   51.0680 O   0  0  0  0  0  0  0  0  0  0  0  0
   40.3930    4.1240   49.7550 C   0  0  0  0  0  0  0  0  0  0  0  0
   39.5430    2.8740   50.0330 C   0  0  0  0  0  0  0  0  0  0  0  0
   40.0660    1.7980   50.7930 C   0  0  0  0  0  0  0  0  0  0  0  0
   38.2390    2.8020   49.5640 C   0  0  0  0  0  0  0  0  0  0  0  0
   39.2880    0.6670   51.0780 C   0  0  0  0  0  0  0  0  0  0  0  0
   37.4580    1.6810   49.8360 C   0  0  0  0  0  0  0  0  0  0  0  0
   37.9850    0.6160   50.5950 C   0  0  0  0  0  0  0  0  0  0  0  0
   37.1790   -0.4700   50.8810 O   0  0  0  0  0  0  0  0  0  0  0  0
   43.5770    2.3410   53.9730 N   0  0  0  0  0  0  0  0  0  0  0  0
   43.7690    1.4180   52.8570 C   0  0  2  0  0  0  0  0  0  0  0  0
   42.8320    0.2220   52.8890 C   0  0  0  0  0  0  0  0  0  0  0  0
   42.4610   -0.2710   51.8270 O   0  0  0  0  0  0  0  0  0  0  0  0
   45.1750    0.8520   52.8360 C   0  0  0  0  0  0  0  0  0  0  0  0
   42.4880   -0.2690   54.0990 N   0  0  0  0  0  0  0  0  0  0  0  0
   41.5830   -1.3950   54.3540 C   0  0  2  0  0  0  0  0  0  0  0  0
   41.6100   -2.5190   53.3650 C   0  0  0  0  0  0  0  0  0  0  0  0
   40.5820   -2.9730   52.8800 O   0  0  0  0  0  0  0  0  0  0  0  0
   40.1640   -0.9300   54.4060 C   0  0  0  0  0  0  0  0  0  0  0  0
   39.7530   -0.3160   55.6960 C   0  0  0  0  0  0  0  0  0  0  0  0
   40.5860    0.2300   56.4440 O   0  0  0  0  0  0  0  0  0  0  0  0
   38.5550   -0.3550   55.9620 O   0  0  0  0  0  0  0  0  0  0  0  0
   42.8080   -2.9360   53.0030 N   0  0  0  0  0  0  0  0  0  0  0  0
   42.9190   -4.0320   52.0850 C   0  0  0  0  0  0  0  0  0  0  0  0
   43.6660   -3.6550   50.8420 C   0  0  0  0  0  0  0  0  0  0  0  0
   44.1890   -4.5320   50.1580 O   0  0  0  0  0  0  0  0  0  0  0  0
   43.6570   -2.3930   50.4360 N   0  0  0  0  0  0  0  0  0  0  0  0
   44.3970   -1.9840   49.2470 C   0  0  2  0  0  0  0  0  0  0  0  0
   45.9030   -2.0250   49.5630 C   0  0  0  0  0  0  0  0  0  0  0  0
   46.3290   -1.9590   50.7330 O   0  0  0  0  0  0  0  0  0  0  0  0
   44.0260   -0.5630   48.8320 C   0  0  0  0  0  0  0  0  0  0  0  0
   42.6240   -0.1310   48.6150 C   0  0  0  0  0  0  0  0  0  0  0  0
   42.6800    1.3160   48.1840 C   0  0  0  0  0  0  0  0  0  0  0  0
   41.9520   -0.9450   47.5560 C   0  0  0  0  0  0  0  0  0  0  0  0
   46.7200   -2.0850   48.5050 N   0  0  0  0  0  0  0  0  0  0  0  0
   48.1590   -2.0990   48.6730 C   0  0  2  0  0  0  0  0  0  0  0  0
   48.6680   -0.8590   49.3860 C   0  0  0  0  0  0  0  0  0  0  0  0
   49.6260   -0.9290   50.1470 O   0  0  0  0  0  0  0  0  0  0  0  0
   48.7720   -2.2180   47.3210 C   0  0  0  0  0  0  0  0  0  0  0  0
   48.2920   -0.8520   46.2290 S   0  0  0  0  0  0  0  0  0  0  0  0
   34.4200   -1.2460   49.7450 O   0  0  0  0  0  0  0  0  0  0  0  0
   45.7250   -5.8870   47.0410 O   0  0  0  0  0  0  0  0  0  0  0  0
   36.7990   -9.1900   38.7300 O   0  0  0  0  0  0  0  0  0  0  0  0
   37.9380   -2.7830   52.2760 O   0  0  0  0  0  0  0  0  0  0  0  0
   36.6310   -1.0750   54.0010 O   0  0  0  0  0  0  0  0  0  0  0  0
   38.8400   -6.2190   42.7070 O   0  0  0  0  0  0  0  0  0  0  0  0
   45.6730   -5.7220   39.2770 O   0  0  0  0  0  0  0  0  0  0  0  0
  2  1  1  1
  3  2  1  0
  4  3  2  0
  5  2  1  0
  6  5  1  0
  5  7  1  1
  8  6  1  0
  9  3  1  0
 10  9  1  6
 11 10  1  0
 12 11  2  0
 13 10  1  0
 14 13  1  0
 13 15  1  6
 16 11  1  0
 17 16  1  0
 18 17  1  0
 19 18  2  0
 17 20  1  6
 21 20  1  0
 22 21  1  0
 23 22  1  0
 24 23  1  0
 25 24  1  0
 26 24  2  0
 27 18  1  0
 28 27  1  0
 28 29  1  6
 30 29  2  0
 31 28  1  0
 32 31  1  0
 33 32  1  0
 34 33  1  0
 35 34  1  0
 36 35  1  0
 37 35  2  0
 39 38  1  6
 40 39  1  0
 41 40  2  0
 42 39  1  0
 43 42  1  0
 44 40  1  0
 45 44  1  0
 45 46  1  6
 47 46  2  0
 48 45  1  0
 49 48  1  0
 50 49  1  0
 51 50  2  0
 52 50  1  0
 54 53  1  1
 55 54  1  0
 56 55  2  0
 57 54  1  0
 58 57  1  0
 59 58  1  0
 60 59  1  0
 61 60  1  0
 62 61  1  0
 63 61  2  0
 64 55  1  0
 65 64  1  0
 66 65  1  0
 67 66  2  0
 65 68  1  6
 69 68  1  0
 70 69  1  0
 71 70  2  0
 72 70  1  0
 73 66  1  0
 74 73  1  0
 75 74  1  0
 76 75  2  0
 74 77  1  1
 78 77  1  0
 79 75  1  0
 80 79  1  0
 81 80  1  0
 82 81  2  0
 80 83  1  1
 84 83  1  0
 85 84  1  0
 86 85  2  0
 87 85  1  0
 88 81  1  0
 89 88  1  1
 90 89  1  0
 91 90  2  0
 92 89  1  0
 93 92  1  0
 92 94  1  6
 95 90  1  0
 96 95  1  0
 96 97  1  1
 98 97  2  0
 99 96  1  0
100 99  1  0
 99101  1  1
103102  1  0
104103  1  0
105104  2  0
103106  1  6
107104  1  0
108107  1  0
109108  1  0
110109  2  0
108111  1  1
112111  1  0
113112  2  0
114112  1  0
115113  1  0
116114  2  0
117115  2  0
117116  1  0
118117  1  0
119109  1  0
120119  1  0
121120  1  0
122121  2  0
120123  1  6
124123  1  0
125121  1  0
126125  1  0
127126  1  0
128127  2  0
126129  1  1
130129  1  0
131130  1  0
132130  1  0
133127  1  0
134133  1  0
135134  1  0
136135  2  0
134137  1  6
138137  1  0
139135  1  0
140139  1  0
140141  1  6
142141  2  0
143140  1  0
144143  1  0
145143  1  0
147146  1  6
148147  1  0
149148  2  0
150147  1  0
151150  1  0
152151  2  0
153151  1  0
155154  1  1
156155  1  0
157156  2  0
158155  1  0
159158  1  0
160159  2  0
161159  1  0
162156  1  0
163162  1  6
164163  1  0
165164  2  0
166163  1  0
167166  1  0
168166  1  0
169164  1  0
170169  1  0
171170  1  0
172171  2  0
170173  1  1
174173  1  0
175174  1  0
176175  1  0
177176  1  0
178171  1  0
179178  1  0
180179  1  0
181180  2  0
179182  1  6
183182  1  0
184183  1  0
185183  2  0
186184  2  0
187186  1  0
187185  1  0
188180  1  0
189188  1  0
190189  1  0
191190  2  0
189192  1  1
193192  1  0
194193  2  0
195193  1  0
196194  1  0
197195  2  0
198196  2  0
198197  1  0
199198  1  0
200190  1  0
201200  1  0
202201  1  0
203202  2  0
201204  1  1
205204  1  0
206205  1  0
207206  1  0
208207  1  0
209202  1  0
210209  1  6
211210  1  0
212211  2  0
213210  1  0
214213  1  0
213215  1  1
216214  1  0
217211  1  0
218217  1  0
218219  1  1
220219  2  0
221218  1  0
222221  1  0
223222  1  0
224223  1  0
225224  1  0
226225  1  0
227225  2  0
229228  1  1
230229  1  0
231230  2  0
232229  1  0
233232  1  0
232234  1  6
235233  1  0
236230  1  0
237236  1  1
238237  1  0
239238  2  0
240237  1  0
241240  1  0
240242  1  6
243238  1  0
244243  1  0
244245  1  1
246245  2  0
247244  1  0
248247  1  0
250249  1  6
251250  1  0
252251  2  0
253250  1  0
254253  1  0
255254  2  0
256254  1  0
257255  1  0
258256  2  0
259258  1  0
259257  2  0
260259  1  0
262261  1  0
263262  1  0
264263  2  0
262265  1  1
266263  1  0
267266  1  0
268267  1  0
269268  2  0
267270  1  6
271270  1  0
272271  2  0
273271  1  0
274268  1  0
275274  1  0
276275  1  0
277276  2  0
278276  1  0
279278  1  0
280279  1  0
281280  2  0
279282  1  1
283282  1  0
284283  1  0
285283  1  0
286280  1  0
287286  1  0
287288  1  6
289288  2  0
290287  1  0
291290  1  0
M  CHG  6  26   1  37   1  63   1 177   1 208   1 227   1
M  END
$$$$
